Version 4
SHEET 1 880 680
WIRE 96 -144 0 -144
WIRE 0 -96 0 -144
WIRE 96 -96 96 -144
WIRE 96 0 96 -16
WIRE 144 0 96 0
WIRE 96 32 96 0
WIRE 224 48 192 48
WIRE 336 48 304 48
WIRE 144 96 144 0
WIRE 272 96 144 96
WIRE 272 112 272 96
WIRE 192 128 192 48
WIRE 192 128 0 128
WIRE 240 128 192 128
WIRE 336 144 336 48
WIRE 336 144 304 144
WIRE 240 160 192 160
WIRE 336 160 336 144
WIRE 0 208 0 192
WIRE 96 240 96 112
WIRE 192 240 192 160
WIRE 192 240 96 240
WIRE 224 240 192 240
WIRE 336 240 336 160
WIRE 336 240 304 240
WIRE 96 272 96 240
WIRE 192 272 192 240
WIRE 96 368 96 352
WIRE 192 368 192 352
FLAG 192 368 0
FLAG 0 208 0
FLAG 336 160 V0
FLAG 192 128 Vc
FLAG 192 240 V+
FLAG 0 -96 0
FLAG 272 176 0
FLAG 96 368 0
SYMBOL res 320 32 R90
WINDOW 0 0 56 VBottom 2
WINDOW 3 32 56 VTop 2
SYMATTR InstName R1
SYMATTR Value 1k
SYMBOL res 320 224 R90
WINDOW 0 0 56 VBottom 2
WINDOW 3 32 56 VTop 2
SYMATTR InstName R2
SYMATTR Value 1k
SYMBOL res 208 368 R180
WINDOW 0 36 76 Left 2
WINDOW 3 36 40 Left 2
SYMATTR InstName R3
SYMATTR Value 1k
SYMBOL cap -16 128 R0
WINDOW 0 -42 16 Left 2
WINDOW 3 -42 45 Left 2
SYMATTR InstName C1
SYMATTR Value 1µ
SYMBOL OpAmps\\UniversalOpAmp2 272 144 R0
SYMATTR InstName U2
SYMBOL voltage 96 0 R180
WINDOW 123 0 0 Left 0
WINDOW 39 0 0 Left 0
SYMATTR InstName V1
SYMATTR Value 10
SYMBOL res 80 16 R0
WINDOW 0 -48 33 Left 2
WINDOW 3 -59 61 Left 2
SYMATTR InstName R4
SYMATTR Value 10k
SYMBOL res 80 256 R0
WINDOW 0 -44 36 Left 2
WINDOW 3 -47 65 Left 2
SYMATTR InstName R5
SYMATTR Value 10k
TEXT -304 272 Left 2 !.tran 0 200m 0 1m
